MastesRls/DataRaw/IEEE39.raw
0,   100.00
New England Test System, 39 Buses, 9 Generators          / PSS/E-30.0    
Created by College of Electrical Engineering, Zhejiang University, Mon 27 Jun 2011 14:39:13
    1,  ' Bus-1  ',   1.0,   1,   0.0,     0.0,   1,    1,    1.04550,    -9.4312,   1
    2,  ' Bus-2  ',   1.0,   1,   0.0,     0.0,   1,    1,    1.04360,    -6.8644,   1
    3,  ' Bus-3  ',   1.0,   1,   0.0,     0.0,   1,    1,    1.02038,    -9.7433,   1
    4,  ' Bus-4  ',   1.0,   1,   0.0,   100.0,   1,    1,    0.99780,   -10.5671,   1
    5,  ' Bus-5  ',   1.0,   1,   0.0,   200.0,   1,    1,    0.99355,    -9.3409,   1
    6,  ' Bus-6  ',   1.0,   1,   0.0,     0.0,   1,    1,    0.99651,    -8.6169,   1
    7,  ' Bus-7  ',   1.0,   1,   0.0,     0.0,   1,    1,    0.94083,   -10.7613,   1
    8,  ' Bus-8  ',   1.0,   1,   0.0,     0.0,   1,    1,    0.95460,   -11.3722,   1
    9,  ' Bus-9  ',   1.0,   1,   0.0,     0.0,   1,    1,    1.01114,   -11.1784,   1
   10,  ' Bus-10 ',   1.0,   1,   0.0,     0.0,   1,    1,    1.00861,    -6.2037,   1
   11,  ' Bus-11 ',   1.0,   1,   0.0,     0.0,   1,    1,    1.00326,    -7.0254,   1
   12,  ' Bus-12 ',   1.0,   1,   0.0,     0.0,   1,    1,    0.99056,    -7.0434,   1
   13,  ' Bus-13 ',   1.0,   1,   0.0,     0.0,   1,    1,    1.00507,    -6.9288,   1
   14,  ' Bus-14 ',   1.0,   1,   0.0,     0.0,   1,    1,    1.00102,    -8.6281,   1
   15,  ' Bus-15 ',   1.0,   1,   0.0,     0.0,   1,    1,    0.99393,    -9.0145,   1
   16,  ' Bus-16 ',   1.0,   1,   0.0,     0.0,   1,    1,    1.00603,    -7.5205,   1
   17,  ' Bus-17 ',   1.0,   1,   0.0,     0.0,   1,    1,    1.01346,    -8.5880,   1
   18,  ' Bus-18 ',   1.0,   1,   0.0,     0.0,   1,    1,    1.01474,    -9.4733,   1
   19,  ' Bus-19 ',   1.0,   1,   0.0,     0.0,   1,    1,    1.04036,    -2.8109,   1
   20,  ' Bus-20 ',   1.0,   1,   0.0,     0.0,   1,    1,    0.98569,    -4.2552,   1
   21,  ' Bus-21 ',   1.0,   1,   0.0,     0.0,   1,    1,    1.01363,    -5.0355,   1
   22,  ' Bus-22 ',   1.0,   1,   0.0,     0.0,   1,    1,    1.04009,    -0.4920,   1
   23,  ' Bus-23 ',   1.0,   1,   0.0,     0.0,   1,    1,    1.03474,    -0.6935,   1
   24,  ' Bus-24 ',   1.0,   1,   0.0,     0.0,   1,    1,    1.01384,    -7.4014,   1
   25,  ' Bus-25 ',   1.0,   1,   0.0,     0.0,   1,    1,    1.05183,    -5.4698,   1
   26,  ' Bus-26 ',   1.0,   1,   0.0,     0.0,   1,    1,    1.03759,    -6.6983,   1
   27,  ' Bus-27 ',   1.0,   1,   0.0,     0.0,   1,    1,    1.02048,    -8.7542,   1
   28,  ' Bus-28 ',   1.0,   1,   0.0,     0.0,   1,    1,    1.03435,    -3.0804,   1
   29,  ' Bus-29 ',   1.0,   1,   0.0,     0.0,   1,    1,    1.03407,    -0.2364,   1
   30,  ' Bus-30 ',   1.0,   2,   0.0,     0.0,   1,    1,    1.04750,    -4.4327,   1
   31,  ' Bus-31 ',   1.0,   2,   0.0,     0.0,   1,    1,    1.04000,    -1.5868,   1
   32,  ' Bus-32 ',   1.0,   2,   0.0,     0.0,   1,    1,    0.98310,     1.8610,   1
   33,  ' Bus-33 ',   1.0,   2,   0.0,     0.0,   1,    1,    0.99720,     2.4285,   1
   34,  ' Bus-34 ',   1.0,   2,   0.0,     0.0,   1,    1,    1.01230,     0.9475,   1
   35,  ' Bus-35 ',   1.0,   2,   0.0,     0.0,   1,    1,    1.04930,     4.5162,   1
   36,  ' Bus-36 ',   1.0,   2,   0.0,     0.0,   1,    1,    1.06350,     7.2258,   1
   37,  ' Bus-37 ',   1.0,   2,   0.0,     0.0,   1,    1,    1.02780,     1.3436,   1
   38,  ' Bus-38 ',   1.0,   2,   0.0,     0.0,   1,    1,    1.02650,     6.8905,   1
   39,  ' Bus-39 ',   1.0,   3,   0.0,     0.0,   1,    1,    1.03000,   -10.9600,   1
0 / END OF BUS DATA, BEGIN LOAD DATA
    1,  '1 ',   1,   1,   1,     0.0,     0.0,     0.0,     0.0,     0.0,     0.0,   1
    2,  '1 ',   1,   1,   1,     0.0,     0.0,     0.0,     0.0,     0.0,     0.0,   1
    3,  '1 ',   1,   1,   1,   322.0,     2.4,     0.0,     0.0,     0.0,     0.0,   1
    4,  '1 ',   1,   1,   1,   500.0,   184.0,     0.0,     0.0,     0.0,     0.0,   1
    5,  '1 ',   1,   1,   1,     0.0,     0.0,     0.0,     0.0,     0.0,     0.0,   1
    6,  '1 ',   1,   1,   1,     0.0,     0.0,     0.0,     0.0,     0.0,     0.0,   1
    7,  '1 ',   1,   1,   1,   233.8,    84.0,     0.0,     0.0,     0.0,     0.0,   1
    8,  '1 ',   1,   1,   1,   522.0,   176.0,     0.0,     0.0,     0.0,     0.0,   1
    9,  '1 ',   1,   1,   1,     0.0,     0.0,     0.0,     0.0,     0.0,     0.0,   1
   10,  '1 ',   1,   1,   1,     0.0,     0.0,     0.0,     0.0,     0.0,     0.0,   1
   11,  '1 ',   1,   1,   1,     0.0,     0.0,     0.0,     0.0,     0.0,     0.0,   1
   12,  '1 ',   1,   1,   1,     8.5,    88.0,     0.0,     0.0,     0.0,     0.0,   1
   13,  '1 ',   1,   1,   1,     0.0,     0.0,     0.0,     0.0,     0.0,     0.0,   1
   14,  '1 ',   1,   1,   1,     0.0,     0.0,     0.0,     0.0,     0.0,     0.0,   1
   15,  '1 ',   1,   1,   1,   320.0,   153.0,     0.0,     0.0,     0.0,     0.0,   1
   16,  '1 ',   1,   1,   1,   329.4,   323.0,     0.0,     0.0,     0.0,     0.0,   1
   17,  '1 ',   1,   1,   1,     0.0,     0.0,     0.0,     0.0,     0.0,     0.0,   1
   18,  '1 ',   1,   1,   1,   158.0,    30.0,     0.0,     0.0,     0.0,     0.0,   1
   19,  '1 ',   1,   1,   1,     0.0,     0.0,     0.0,     0.0,     0.0,     0.0,   1
   20,  '1 ',   1,   1,   1,   680.0,   103.0,     0.0,     0.0,     0.0,     0.0,   1
   21,  '1 ',   1,   1,   1,   274.0,   115.0,     0.0,     0.0,     0.0,     0.0,   1
   22,  '1 ',   1,   1,   1,     0.0,     0.0,     0.0,     0.0,     0.0,     0.0,   1
   23,  '1 ',   1,   1,   1,   247.5,    84.6,     0.0,     0.0,     0.0,     0.0,   1
   24,  '1 ',   1,   1,   1,   308.6,   -92.2,     0.0,     0.0,     0.0,     0.0,   1
   25,  '1 ',   1,   1,   1,   224.0,    47.2,     0.0,     0.0,     0.0,     0.0,   1
   26,  '1 ',   1,   1,   1,   139.0,    17.0,     0.0,     0.0,     0.0,     0.0,   1
   27,  '1 ',   1,   1,   1,   281.0,    75.5,     0.0,     0.0,     0.0,     0.0,   1
   28,  '1 ',   1,   1,   1,   206.0,    27.6,     0.0,     0.0,     0.0,     0.0,   1
   29,  '1 ',   1,   1,   1,   283.5,   126.9,     0.0,     0.0,     0.0,     0.0,   1
   31,  '1 ',   1,   1,   1,     9.2,     4.6,     0.0,     0.0,     0.0,     0.0,   1
   39,  '1 ',   1,   1,   1,  1104.0,   250.0,     0.0,     0.0,     0.0,     0.0,   1
0 / END OF LOAD DATA, BEGIN GENERATOR DATA
   30,  '1 ',   250.000,   175.207,   211.0,  -141.0,  1.04750,  0,  1000.0,  0.00140,   0.20,   0.0,  0.0,  1.0,  1,  100.0,   350.0,   100.0,   1,  1.0
   31,  '1 ',   572.930,   774.372,   691.0,  -461.0,  1.04000,  0,  1000.0,  0.02700,   0.20,   0.0,  0.0,  1.0,  1,  100.0,  1145.0,   600.0,   1,  1.0
   32,  '1 ',   650.000,   244.778,   452.0,  -301.0,  0.98310,  0,  1000.0,  0.00386,   0.20,   0.0,  0.0,  1.0,  1,  100.0,   750.0,   250.0,   1,  1.0
   33,  '1 ',   632.000,   172.224,   441.0,  -294.0,  0.99720,  0,  1000.0,  0.00222,   0.20,   0.0,  0.0,  1.0,  1,  100.0,   732.0,   250.0,   1,  1.0
   34,  '1 ',   508.000,   196.316,   367.0,  -245.0,  1.01230,  0,  1000.0,  0.00140,   0.20,   0.0,  0.0,  1.0,  1,  100.0,   608.0,   250.0,   1,  1.0
   35,  '1 ',   650.000,   282.187,   452.0,  -301.0,  1.04930,  0,  1000.0,  0.06150,   0.20,   0.0,  0.0,  1.0,  1,  100.0,   750.0,   250.0,   1,  1.0
   36,  '1 ',   560.000,   140.745,   398.0,  -265.0,  1.06350,  0,  1000.0,  0.00268,   0.20,   0.0,  0.0,  1.0,  1,  100.0,   660.0,   250.0,   1,  1.0
   37,  '1 ',   540.000,    25.322,   386.0,  -257.0,  1.02780,  0,  1000.0,  0.00686,   0.20,   0.0,  0.0,  1.0,  1,  100.0,   640.0,   250.0,   1,  1.0
   38,  '1 ',   830.000,   124.892,   561.0,  -374.0,  1.02650,  0,  1000.0,  0.00300,   0.20,   0.0,  0.0,  1.0,  1,  100.0,   930.0,   250.0,   1,  1.0
   39,  '1 ',  1005.729,   165.907,   663.0,  -442.0,  1.03000,  0,  1000.0,  0.00100,   0.02,   0.0,  0.0,  1.0,  1,  100.0,  1100.0,   600.0,   1,  1.0
0 / END OF GENERATOR DATA, BEGIN BRANCH DATA
    1,     2,   '1 ',    0.00350,    0.04110,    0.69870,    0.0,   0.0,   1.0,   0.0,   0.0,   0.0,   0.0,   1,   0.0,   1,   1.0
    1,    39,   '1 ',    0.00100,    0.02500,    0.75000,    0.0,   0.0,   1.0,   0.0,   0.0,   0.0,   0.0,   1,   0.0,   1,   1.0
    2,     3,   '1 ',    0.00130,    0.01510,    0.25720,    0.0,   0.0,   1.0,   0.0,   0.0,   0.0,   0.0,   1,   0.0,   1,   1.0
    2,    25,   '1 ',    0.00700,    0.00860,    0.14600,    0.0,   0.0,   1.0,   0.0,   0.0,   0.0,   0.0,   1,   0.0,   1,   1.0
    3,     4,   '1 ',    0.00130,    0.02130,    0.22140,    0.0,   0.0,   1.0,   0.0,   0.0,   0.0,   0.0,   1,   0.0,   1,   1.0
    3,    18,   '1 ',    0.00110,    0.01330,    0.21380,    0.0,   0.0,   1.0,   0.0,   0.0,   0.0,   0.0,   1,   0.0,   1,   1.0
    4,     5,   '1 ',    0.00080,    0.01280,    0.13420,    0.0,   0.0,   1.0,   0.0,   0.0,   0.0,   0.0,   1,   0.0,   1,   1.0
    4,    14,   '1 ',    0.00080,    0.01290,    0.13820,    0.0,   0.0,   1.0,   0.0,   0.0,   0.0,   0.0,   1,   0.0,   1,   1.0
    5,     6,   '1 ',    0.00020,    0.00260,    0.04340,    0.0,   0.0,   1.0,   0.0,   0.0,   0.0,   0.0,   1,   0.0,   1,   1.0
    5,     8,   '1 ',    0.00080,    0.01120,    0.14760,    0.0,   0.0,   1.0,   0.0,   0.0,   0.0,   0.0,   1,   0.0,   1,   1.0
    6,     7,   '1 ',    0.00060,    0.00920,    0.11300,    0.0,   0.0,   1.0,   0.0,   0.0,   0.0,   0.0,   1,   0.0,   1,   1.0
    6,    11,   '1 ',    0.00070,    0.00820,    0.13890,    0.0,   0.0,   1.0,   0.0,   0.0,   0.0,   0.0,   1,   0.0,   1,   1.0
    7,     8,   '1 ',    0.00040,    0.00460,    0.07800,    0.0,   0.0,   1.0,   0.0,   0.0,   0.0,   0.0,   1,   0.0,   1,   1.0
    8,     9,   '1 ',    0.00230,    0.03630,    0.38040,    0.0,   0.0,   1.0,   0.0,   0.0,   0.0,   0.0,   1,   0.0,   1,   1.0
    9,    39,   '1 ',    0.00100,    0.02500,    1.20000,    0.0,   0.0,   1.0,   0.0,   0.0,   0.0,   0.0,   1,   0.0,   1,   1.0
   10,    11,   '1 ',    0.00040,    0.00430,    0.07290,    0.0,   0.0,   1.0,   0.0,   0.0,   0.0,   0.0,   1,   0.0,   1,   1.0
   10,    13,   '1 ',    0.00040,    0.00430,    0.07290,    0.0,   0.0,   1.0,   0.0,   0.0,   0.0,   0.0,   1,   0.0,   1,   1.0
   13,    14,   '1 ',    0.00090,    0.01010,    0.17230,    0.0,   0.0,   1.0,   0.0,   0.0,   0.0,   0.0,   1,   0.0,   1,   1.0
   14,    15,   '1 ',    0.00180,    0.02170,    0.36600,    0.0,   0.0,   1.0,   0.0,   0.0,   0.0,   0.0,   1,   0.0,   1,   1.0
   15,    16,   '1 ',    0.00090,    0.00940,    0.17100,    0.0,   0.0,   1.0,   0.0,   0.0,   0.0,   0.0,   1,   0.0,   1,   1.0
   16,    17,   '1 ',    0.00070,    0.00890,    0.13420,    0.0,   0.0,   1.0,   0.0,   0.0,   0.0,   0.0,   1,   0.0,   1,   1.0
   16,    19,   '1 ',    0.00160,    0.01950,    0.30400,    0.0,   0.0,   1.0,   0.0,   0.0,   0.0,   0.0,   1,   0.0,   1,   1.0
   16,    21,   '1 ',    0.00080,    0.01350,    0.25480,    0.0,   0.0,   1.0,   0.0,   0.0,   0.0,   0.0,   1,   0.0,   1,   1.0
   16,    24,   '1 ',    0.00030,    0.00590,    0.06800,    0.0,   0.0,   1.0,   0.0,   0.0,   0.0,   0.0,   1,   0.0,   1,   1.0
   17,    18,   '1 ',    0.00070,    0.00820,    0.13190,    0.0,   0.0,   1.0,   0.0,   0.0,   0.0,   0.0,   1,   0.0,   1,   1.0
   17,    27,   '1 ',    0.00130,    0.01730,    0.32160,    0.0,   0.0,   1.0,   0.0,   0.0,   0.0,   0.0,   1,   0.0,   1,   1.0
   21,    22,   '1 ',    0.00080,    0.01400,    0.25650,    0.0,   0.0,   1.0,   0.0,   0.0,   0.0,   0.0,   1,   0.0,   1,   1.0
   22,    23,   '1 ',    0.00060,    0.00960,    0.18460,    0.0,   0.0,   1.0,   0.0,   0.0,   0.0,   0.0,   1,   0.0,   1,   1.0
   23,    24,   '1 ',    0.00220,    0.03500,    0.36100,    0.0,   0.0,   1.0,   0.0,   0.0,   0.0,   0.0,   1,   0.0,   1,   1.0
   25,    26,   '1 ',    0.00320,    0.03230,    0.51300,    0.0,   0.0,   1.0,   0.0,   0.0,   0.0,   0.0,   1,   0.0,   1,   1.0
   26,    27,   '1 ',    0.00140,    0.01470,    0.23960,    0.0,   0.0,   1.0,   0.0,   0.0,   0.0,   0.0,   1,   0.0,   1,   1.0
   26,    28,   '1 ',    0.00430,    0.04740,    0.78020,    0.0,   0.0,   1.0,   0.0,   0.0,   0.0,   0.0,   1,   0.0,   1,   1.0
   26,    29,   '1 ',    0.00570,    0.06250,    1.02900,    0.0,   0.0,   1.0,   0.0,   0.0,   0.0,   0.0,   1,   0.0,   1,   1.0
   28,    29,   '1 ',    0.00140,    0.01510,    0.24900,    0.0,   0.0,   1.0,   0.0,   0.0,   0.0,   0.0,   1,   0.0,   1,   1.0
0 / END OF BRANCH DATA, BEGIN TRANSFORMER DATA
2,   30,    0,'1 ',1,1,1,   0.00000,   0.00000,2,'        ',1,   1,1.0000
    0.00000,   0.01810,  100.00
    1.02500,   0.000,   0.000,    0.00,    0.00,    0.00, 0,     0, 1.10000, 0.90000, 1.10000, 0.90000,   33, 0, 0.00000, 0.00000
    1.00000,   0.000
31,    6,    0,'1 ',1,1,1,   0.00000,   0.00000,2,'        ',1,   1,1.0000
    0.00000,   0.02500,  100.00
    0.90000,   0.000,   0.000,    0.00,    0.00,    0.00, 1,     6, 1.10000, 0.90000, 1.10000, 0.90000,   33, 0, 0.00000, 0.00000
    1.00000,   0.000
10,   32,    0,'1 ',1,1,1,   0.00000,   0.00000,2,'        ',1,   1,1.0000
    0.00000,   0.02000,  100.00
    1.07000,   0.000,   0.000,    0.00,    0.00,    0.00, 0,     0, 1.10000, 0.90000, 1.10000, 0.90000,   33, 0, 0.00000, 0.00000
    1.00000,   0.000
12,   11,    0,'1 ',1,1,1,   0.00000,   0.00000,2,'        ',1,   1,1.0000
    0.00160,   0.04350,  100.00
    1.00600,   0.000,   0.000,    0.00,    0.00,    0.00, 0,     0, 1.10000, 0.90000, 1.10000, 0.90000,   33, 0, 0.00000, 0.00000
    1.00000,   0.000
12,   13,    0,'1 ',1,1,1,   0.00000,   0.00000,2,'        ',1,   1,1.0000
    0.00160,   0.04350,  100.00
    1.00600,   0.000,   0.000,    0.00,    0.00,    0.00, 0,     0, 1.10000, 0.90000, 1.10000, 0.90000,   33, 0, 0.00000, 0.00000
    1.00000,   0.000
19,   20,    0,'1 ',1,1,1,   0.00000,   0.00000,2,'        ',1,   1,1.0000
    0.00070,   0.01380,  100.00
    1.06000,   0.000,   0.000,    0.00,    0.00,    0.00, 0,     0, 1.10000, 0.90000, 1.10000, 0.90000,   33, 0, 0.00000, 0.00000
    1.00000,   0.000
19,   33,    0,'1 ',1,1,1,   0.00000,   0.00000,2,'        ',1,   1,1.0000
    0.00070,   0.01420,  100.00
    1.07000,   0.000,   0.000,    0.00,    0.00,    0.00, 0,     0, 1.10000, 0.90000, 1.10000, 0.90000,   33, 0, 0.00000, 0.00000
    1.00000,   0.000
20,   34,    0,'1 ',1,1,1,   0.00000,   0.00000,2,'        ',1,   1,1.0000
    0.00090,   0.01800,  100.00
    1.00900,   0.000,   0.000,    0.00,    0.00,    0.00, 0,     0, 1.10000, 0.90000, 1.10000, 0.90000,   33, 0, 0.00000, 0.00000
    1.00000,   0.000
22,   35,    0,'1 ',1,1,1,   0.00000,   0.00000,2,'        ',1,   1,1.0000
    0.00000,   0.01430,  100.00
    1.02500,   0.000,   0.000,    0.00,    0.00,    0.00, 0,     0, 1.10000, 0.90000, 1.10000, 0.90000,   33, 0, 0.00000, 0.00000
    1.00000,   0.000
23,   36,    0,'1 ',1,1,1,   0.00000,   0.00000,2,'        ',1,   1,1.0000
    0.00050,   0.02720,  100.00
    1.00000,   0.000,   0.000,    0.00,    0.00,    0.00, 0,     0, 1.10000, 0.90000, 1.10000, 0.90000,   33, 0, 0.00000, 0.00000
    1.00000,   0.000
25,   37,    0,'1 ',1,1,1,   0.00000,   0.00000,2,'        ',1,   1,1.0000
    0.00060,   0.02320,  100.00
    1.02500,   0.000,   0.000,    0.00,    0.00,    0.00, 0,     0, 1.10000, 0.90000, 1.10000, 0.90000,   33, 0, 0.00000, 0.00000
    1.00000,   0.000
29,   38,    0,'1 ',1,1,1,   0.00000,   0.00000,2,'        ',1,   1,1.0000
    0.00080,   0.01560,  100.00
    1.02500,   0.000,   0.000,    0.00,    0.00,    0.00, 0,     0, 1.10000, 0.90000, 1.10000, 0.90000,   33, 0, 0.00000, 0.00000
    1.00000,   0.000
0 / END OF TRANSFORMER DATA, BEGIN AREA DATA
0 / END OF AREA DATA, BEGIN TWO-TERMINAL DC DATA
0 / END OF TWO-TERMINAL DC DATA, BEGIN VSC DC LINE DATA
0 / END OF VSC DC LINE DATA, BEGIN SWITCHED SHUNT DATA
0 / END OF SWITCHED SHUNT DATA, BEGIN IMPEDANCE CORRECTION DATA
0 / END OF IMPEDANCE CORRECTION DATA, BEGIN MULTI-TERMINAL DC DATA
0 / END OF MULTI-TERMINAL DC DATA, BEGIN MULTI-SECTION LINE DATA
0 / END OF MULTI-SECTION LINE DATA, BEGIN ZONE DATA
0 / END OF ZONE DATA, BEGIN INTER-AREA TRANSFER DATA
0 / END OF INTER-AREA TRANSFER DATA, BEGIN OWNER DATA
0 / END OF OWNER DATA, BEGIN FACTS DEVICE DATA
0 / END OF FACTS DEVICE DATA
